
     RDKit          3D

 24 25  0  0  0  0  0  0  0  0999 V2000
   -4.0038   -0.9197   -0.1672 O   0  0  0  0  0  0  0  0  0  0  0  0
   -3.0256    0.0410   -0.4123 C   0  0  0  0  0  0  0  0  0  0  0  0
   -3.3774    1.1954   -0.7759 O   0  0  0  0  0  0  0  0  0  0  0  0
   -1.5886   -0.3169   -0.2878 C   0  0  0  0  0  0  0  0  0  0  0  0
   -1.2320   -1.6583   -0.4939 C   0  0  0  0  0  0  0  0  0  0  0  0
    0.0984   -2.0616   -0.4592 C   0  0  0  0  0  0  0  0  0  0  0  0
    1.1123   -1.1364   -0.2002 C   0  0  0  0  0  0  0  0  0  0  0  0
    2.4500   -1.5621   -0.1606 C   0  0  0  0  0  0  0  0  0  0  0  0
    3.4694   -0.6550    0.1263 C   0  0  0  0  0  0  0  0  0  0  0  0
    3.1642    0.6800    0.3840 C   0  0  0  0  0  0  0  0  0  0  0  0
    1.8389    1.1202    0.3468 C   0  0  0  0  0  0  0  0  0  0  0  0
    0.7881    0.2253    0.0380 C   0  0  0  0  0  0  0  0  0  0  0  0
   -0.5731    0.6411   -0.0103 C   0  0  0  0  0  0  0  0  0  0  0  0
   -0.9389    2.0468    0.2733 C   0  0  0  0  0  0  0  0  0  0  0  0
   -0.4837    2.9781   -0.4437 O   0  0  0  0  0  0  0  0  0  0  0  0
   -1.8030    2.3400    1.3242 O   0  0  0  0  0  0  0  0  0  0  0  0
   -4.9875   -0.6968   -0.2619 H   0  0  0  0  0  0  0  0  0  0  0  0
   -1.9885   -2.4024   -0.7119 H   0  0  0  0  0  0  0  0  0  0  0  0
    0.3350   -3.1044   -0.6365 H   0  0  0  0  0  0  0  0  0  0  0  0
    2.7064   -2.5986   -0.3458 H   0  0  0  0  0  0  0  0  0  0  0  0
    4.4982   -0.9899    0.1577 H   0  0  0  0  0  0  0  0  0  0  0  0
    3.9580    1.3777    0.6184 H   0  0  0  0  0  0  0  0  0  0  0  0
    1.6527    2.1606    0.5723 H   0  0  0  0  0  0  0  0  0  0  0  0
   -2.0695    3.2961    1.5261 H   0  0  0  0  0  0  0  0  0  0  0  0
  1  2  1  0
  2  3  2  0
  2  4  1  0
  4  5  2  0
  5  6  1  0
  6  7  2  0
  7  8  1  0
  8  9  2  0
  9 10  1  0
 10 11  2  0
 11 12  1  0
 12 13  2  0
 13 14  1  0
 14 15  2  0
 14 16  1  0
 13  4  1  0
 12  7  1  0
  1 17  1  0
  5 18  1  0
  6 19  1  0
  8 20  1  0
  9 21  1  0
 10 22  1  0
 11 23  1  0
 16 24  1  0
M  END
