
     RDKit          3D

 13 13  0  0  0  0  0  0  0  0999 V2000
   -1.8745    0.0332    0.0370 N   0  0  0  0  0  0  0  0  0  0  0  0
   -0.5313   -0.4300   -0.0396 C   0  0  0  0  0  0  0  0  0  0  0  0
   -0.0920   -1.7502   -0.1851 C   0  0  0  0  0  0  0  0  0  0  0  0
    1.2704   -1.7281   -0.2121 N   0  0  0  0  0  0  0  0  0  0  0  0
    1.6821   -0.4371   -0.0878 C   0  0  0  0  0  0  0  0  0  0  0  0
    0.5888    0.3472    0.0166 N   0  0  0  0  0  0  0  0  0  0  0  0
    0.5802    1.7548    0.1620 N   0  0  0  0  0  0  0  0  0  0  0  0
   -2.3728    0.4397   -0.7601 H   0  0  0  0  0  0  0  0  0  0  0  0
   -2.3701   -0.0484    0.9533 H   0  0  0  0  0  0  0  0  0  0  0  0
   -0.7475   -2.6163   -0.2604 H   0  0  0  0  0  0  0  0  0  0  0  0
    2.7197   -0.0745   -0.0726 H   0  0  0  0  0  0  0  0  0  0  0  0
    0.2789    2.1403    1.0899 H   0  0  0  0  0  0  0  0  0  0  0  0
    0.8681    2.3694   -0.6412 H   0  0  0  0  0  0  0  0  0  0  0  0
  1  2  1  0
  2  3  2  0
  3  4  1  0
  4  5  2  0
  5  6  1  0
  6  7  1  0
  6  2  1  0
  1  8  1  0
  1  9  1  0
  3 10  1  0
  5 11  1  0
  7 12  1  0
  7 13  1  0
M  END
