
 OpenBabel07092516073D

 11 11  0  0  0  0  0  0  0  0999 V2000
    1.1650    0.1157   -0.2060 O   0  5  0  0  0  0  0  0  0  0  0  0
    3.0668    0.1116    0.9206 O   0  0  0  0  0  0  0  0  0  0  0  0
    3.5066    1.0803   -1.9958 N   0  0  0  0  0  0  0  0  0  0  0  0
    2.3938    0.0550   -0.1120 N   0  3  0  0  0  0  0  0  0  0  0  0
    4.2000   -0.6874   -3.1536 N   0  0  0  0  0  0  0  0  0  0  0  0
    3.1078   -0.0307   -1.3177 C   0  0  0  0  0  0  0  0  0  0  0  0
    3.5328   -1.1158   -2.0284 C   0  0  0  0  0  0  0  0  0  0  0  0
    4.1691    0.6290   -3.1070 C   0  0  0  0  0  0  0  0  0  0  0  0
    3.3508    2.0463   -1.7381 H   0  0  0  0  0  0  0  0  0  0  0  0
    3.4055   -2.1678   -1.8086 H   0  0  0  0  0  0  0  0  0  0  0  0
    4.6031    1.2987   -3.8388 H   0  0  0  0  0  0  0  0  0  0  0  0
  1  4  1  0  0  0  0
  2  4  2  0  0  0  0
  3  6  1  0  0  0  0
  3  8  1  0  0  0  0
  3  9  1  0  0  0  0
  4  6  1  0  0  0  0
  5  7  1  0  0  0  0
  5  8  2  0  0  0  0
  6  7  2  0  0  0  0
  7 10  1  0  0  0  0
  8 11  1  0  0  0  0
M  CHG  2   1  -1   4   1
M  END
