
     RDKit          3D

 18 18  0  0  0  0  0  0  0  0999 V2000
   -2.9208   -0.2059    0.5423 B   0  0  0  0  0  0  0  0  0  0  0  0
   -3.8275   -0.8027   -0.4362 O   0  0  0  0  0  0  0  0  0  0  0  0
   -1.3798   -0.0997    0.2515 C   0  0  0  0  0  0  0  0  0  0  0  0
   -0.8454   -0.5715   -0.9573 C   0  0  0  0  0  0  0  0  0  0  0  0
    0.5270   -0.4721   -1.2069 C   0  0  0  0  0  0  0  0  0  0  0  0
    1.3798    0.0997   -0.2515 C   0  0  0  0  0  0  0  0  0  0  0  0
    0.8454    0.5715    0.9573 C   0  0  0  0  0  0  0  0  0  0  0  0
   -0.5270    0.4721    1.2069 C   0  0  0  0  0  0  0  0  0  0  0  0
    2.9208    0.2059   -0.5423 B   0  0  0  0  0  0  0  0  0  0  0  0
    3.8275    0.8027    0.4362 O   0  0  0  0  0  0  0  0  0  0  0  0
   -3.3565    0.1917    1.5667 H   0  0  0  0  0  0  0  0  0  0  0  0
   -4.1238   -0.0434   -0.9989 H   0  0  0  0  0  0  0  0  0  0  0  0
   -1.4849   -1.0168   -1.7099 H   0  0  0  0  0  0  0  0  0  0  0  0
    0.9196   -0.8426   -2.1466 H   0  0  0  0  0  0  0  0  0  0  0  0
    1.4849    1.0168    1.7099 H   0  0  0  0  0  0  0  0  0  0  0  0
   -0.9196    0.8426    2.1466 H   0  0  0  0  0  0  0  0  0  0  0  0
    3.3565   -0.1917   -1.5667 H   0  0  0  0  0  0  0  0  0  0  0  0
    4.1238    0.0434    0.9989 H   0  0  0  0  0  0  0  0  0  0  0  0
  1  2  1  0
  1  3  1  0
  3  4  2  0
  4  5  1  0
  5  6  2  0
  6  7  1  0
  7  8  2  0
  6  9  1  0
  9 10  1  0
  8  3  1  0
  1 11  1  0
  2 12  1  0
  4 13  1  0
  5 14  1  0
  7 15  1  0
  8 16  1  0
  9 17  1  0
 10 18  1  0
M  END
