
     RDKit          3D

 24 24  0  0  0  0  0  0  0  0999 V2000
    3.1456    0.5196   -0.1087 O   0  0  0  0  0  0  0  0  0  0  0  0
    2.6801   -0.7812   -0.2799 C   0  0  0  0  0  0  0  0  0  0  0  0
    3.4979   -1.7153   -0.4963 O   0  0  0  0  0  0  0  0  0  0  0  0
    1.2037   -1.0693   -0.2310 C   0  0  0  0  0  0  0  0  0  0  0  0
    0.5761   -0.5581    1.0935 C   0  0  0  0  0  0  0  0  0  0  0  0
   -0.0847    0.8180    0.9315 C   0  0  0  0  0  0  0  0  0  0  0  0
   -1.2022    0.8095   -0.1460 C   0  0  0  0  0  0  0  0  0  0  0  0
   -0.9820   -0.2624   -1.2413 C   0  0  0  0  0  0  0  0  0  0  0  0
    0.5102   -0.4976   -1.4913 C   0  0  0  0  0  0  0  0  0  0  0  0
   -2.5635    0.6466    0.4750 C   0  0  0  0  0  0  0  0  0  0  0  0
   -2.8105   -0.3379    1.2230 O   0  0  0  0  0  0  0  0  0  0  0  0
   -3.5620    1.5774    0.2049 O   0  0  0  0  0  0  0  0  0  0  0  0
    4.1364    0.7263   -0.1471 H   0  0  0  0  0  0  0  0  0  0  0  0
    1.0706   -2.1751   -0.2465 H   0  0  0  0  0  0  0  0  0  0  0  0
   -0.1991   -1.2806    1.4312 H   0  0  0  0  0  0  0  0  0  0  0  0
    1.3376   -0.5113    1.9032 H   0  0  0  0  0  0  0  0  0  0  0  0
   -0.4812    1.1578    1.9138 H   0  0  0  0  0  0  0  0  0  0  0  0
    0.6987    1.5505    0.6373 H   0  0  0  0  0  0  0  0  0  0  0  0
   -1.1803    1.8058   -0.6422 H   0  0  0  0  0  0  0  0  0  0  0  0
   -1.4678    0.0675   -2.1855 H   0  0  0  0  0  0  0  0  0  0  0  0
   -1.4454   -1.2313   -0.9481 H   0  0  0  0  0  0  0  0  0  0  0  0
    0.9720    0.4690   -1.7946 H   0  0  0  0  0  0  0  0  0  0  0  0
    0.6361   -1.2077   -2.3376 H   0  0  0  0  0  0  0  0  0  0  0  0
   -4.4861    1.4796    0.6082 H   0  0  0  0  0  0  0  0  0  0  0  0
  1  2  1  0
  2  3  2  0
  2  4  1  0
  4  5  1  0
  5  6  1  0
  6  7  1  0
  7  8  1  0
  8  9  1  0
  7 10  1  0
 10 11  2  0
 10 12  1  0
  9  4  1  0
  1 13  1  0
  4 14  1  0
  5 15  1  0
  5 16  1  0
  6 17  1  0
  6 18  1  0
  7 19  1  0
  8 20  1  0
  8 21  1  0
  9 22  1  0
  9 23  1  0
 12 24  1  0
M  END
