
     RDKit          3D

 24 24  0  0  0  0  0  0  0  0999 V2000
   -1.9525    3.0462   -1.0591 O   0  0  0  0  0  0  0  0  0  0  0  0
   -1.8699    1.8966   -0.2797 C   0  0  0  0  0  0  0  0  0  0  0  0
   -2.6878    1.7189    0.6636 O   0  0  0  0  0  0  0  0  0  0  0  0
   -0.8050    0.8750   -0.5676 C   0  0  0  0  0  0  0  0  0  0  0  0
   -1.4389   -0.4781   -0.9412 C   0  0  0  0  0  0  0  0  0  0  0  0
   -0.3591   -1.5311   -1.2206 C   0  0  0  0  0  0  0  0  0  0  0  0
    0.5834   -1.6865   -0.0203 C   0  0  0  0  0  0  0  0  0  0  0  0
    1.2230   -0.3368    0.3559 C   0  0  0  0  0  0  0  0  0  0  0  0
    0.1396    0.7211    0.6398 C   0  0  0  0  0  0  0  0  0  0  0  0
    2.1323   -0.4949    1.5428 C   0  0  0  0  0  0  0  0  0  0  0  0
    1.6752   -0.8882    2.6503 O   0  0  0  0  0  0  0  0  0  0  0  0
    3.4873   -0.2042    1.4180 O   0  0  0  0  0  0  0  0  0  0  0  0
   -2.6631    3.7456   -0.8797 H   0  0  0  0  0  0  0  0  0  0  0  0
   -0.2085    1.2345   -1.4364 H   0  0  0  0  0  0  0  0  0  0  0  0
   -2.0675   -0.3570   -1.8505 H   0  0  0  0  0  0  0  0  0  0  0  0
   -2.0936   -0.8371   -0.1159 H   0  0  0  0  0  0  0  0  0  0  0  0
   -0.8456   -2.5074   -1.4332 H   0  0  0  0  0  0  0  0  0  0  0  0
    0.2258   -1.2379   -2.1202 H   0  0  0  0  0  0  0  0  0  0  0  0
    1.3803   -2.4171   -0.2805 H   0  0  0  0  0  0  0  0  0  0  0  0
    0.0110   -2.0946    0.8425 H   0  0  0  0  0  0  0  0  0  0  0  0
    1.8373    0.0120   -0.5048 H   0  0  0  0  0  0  0  0  0  0  0  0
    0.6279    1.6987    0.8502 H   0  0  0  0  0  0  0  0  0  0  0  0
   -0.4463    0.4267    1.5399 H   0  0  0  0  0  0  0  0  0  0  0  0
    4.1149   -0.3045    2.2068 H   0  0  0  0  0  0  0  0  0  0  0  0
  1  2  1  0
  2  3  2  0
  2  4  1  0
  4  5  1  0
  5  6  1  0
  6  7  1  0
  7  8  1  0
  8  9  1  0
  8 10  1  0
 10 11  2  0
 10 12  1  0
  9  4  1  0
  1 13  1  0
  4 14  1  0
  5 15  1  0
  5 16  1  0
  6 17  1  0
  6 18  1  0
  7 19  1  0
  7 20  1  0
  8 21  1  0
  9 22  1  0
  9 23  1  0
 12 24  1  0
M  END
