
     RDKit          3D

 34 35  0  0  0  0  0  0  0  0999 V2000
    4.6399    1.3535   -1.3345 O   0  0  0  0  0  0  0  0  0  0  0  0
    3.5673    0.4669   -1.3419 C   0  0  0  0  0  0  0  0  0  0  0  0
    3.4929   -0.3930   -2.2614 O   0  0  0  0  0  0  0  0  0  0  0  0
    2.4990    0.5458   -0.3111 C   0  0  0  0  0  0  0  0  0  0  0  0
    1.2205    0.0510   -0.6348 C   0  0  0  0  0  0  0  0  0  0  0  0
    0.1649    0.1148    0.2849 C   0  0  0  0  0  0  0  0  0  0  0  0
    0.3787    0.6990    1.5379 C   0  0  0  0  0  0  0  0  0  0  0  0
    1.6398    1.1823    1.8826 C   0  0  0  0  0  0  0  0  0  0  0  0
    2.7147    1.0994    0.9805 C   0  0  0  0  0  0  0  0  0  0  0  0
    4.0629    1.6020    1.4273 C   0  0  0  0  0  0  0  0  0  0  0  0
   -1.1794   -0.3833   -0.0867 C   0  0  0  0  0  0  0  0  0  0  0  0
   -1.8273    0.2194   -1.1791 C   0  0  0  0  0  0  0  0  0  0  0  0
   -3.1284   -0.1535   -1.5388 C   0  0  0  0  0  0  0  0  0  0  0  0
   -3.8034   -1.1135   -0.7776 C   0  0  0  0  0  0  0  0  0  0  0  0
   -3.1700   -1.7306    0.3017 C   0  0  0  0  0  0  0  0  0  0  0  0
   -1.8507   -1.3942    0.6534 C   0  0  0  0  0  0  0  0  0  0  0  0
   -1.2059   -2.1432    1.7611 C   0  0  0  0  0  0  0  0  0  0  0  0
    0.0476   -2.2614    1.8181 O   0  0  0  0  0  0  0  0  0  0  0  0
   -1.9905   -2.7608    2.7318 O   0  0  0  0  0  0  0  0  0  0  0  0
   -3.8231    0.5328   -2.6777 C   0  0  0  0  0  0  0  0  0  0  0  0
    5.3612    1.3046   -2.0441 H   0  0  0  0  0  0  0  0  0  0  0  0
    1.0368   -0.3802   -1.6123 H   0  0  0  0  0  0  0  0  0  0  0  0
   -0.4333    0.7779    2.2505 H   0  0  0  0  0  0  0  0  0  0  0  0
    1.7777    1.6182    2.8645 H   0  0  0  0  0  0  0  0  0  0  0  0
    4.0920    1.7721    2.5248 H   0  0  0  0  0  0  0  0  0  0  0  0
    4.8491    0.8543    1.1916 H   0  0  0  0  0  0  0  0  0  0  0  0
    4.2900    2.5652    0.9246 H   0  0  0  0  0  0  0  0  0  0  0  0
   -1.3232    0.9991   -1.7393 H   0  0  0  0  0  0  0  0  0  0  0  0
   -4.8200   -1.3931   -1.0256 H   0  0  0  0  0  0  0  0  0  0  0  0
   -3.7105   -2.4918    0.8508 H   0  0  0  0  0  0  0  0  0  0  0  0
   -1.5663   -3.2870    3.4864 H   0  0  0  0  0  0  0  0  0  0  0  0
   -4.3395    1.4407   -2.3019 H   0  0  0  0  0  0  0  0  0  0  0  0
   -3.0925    0.8289   -3.4603 H   0  0  0  0  0  0  0  0  0  0  0  0
   -4.5713   -0.1422   -3.1454 H   0  0  0  0  0  0  0  0  0  0  0  0
  1  2  1  0
  2  3  2  0
  2  4  1  0
  4  5  2  0
  5  6  1  0
  6  7  2  0
  7  8  1  0
  8  9  2  0
  9 10  1  0
  6 11  1  0
 11 12  2  0
 12 13  1  0
 13 14  2  0
 14 15  1  0
 15 16  2  0
 16 17  1  0
 17 18  2  0
 17 19  1  0
 13 20  1  0
  9  4  1  0
 16 11  1  0
  1 21  1  0
  5 22  1  0
  7 23  1  0
  8 24  1  0
 10 25  1  0
 10 26  1  0
 10 27  1  0
 12 28  1  0
 14 29  1  0
 15 30  1  0
 19 31  1  0
 20 32  1  0
 20 33  1  0
 20 34  1  0
M  END
