
     RDKit          3D

 32 33  0  0  0  0  0  0  0  0999 V2000
   -6.9935    1.0127    0.1234 O   0  0  0  0  0  0  0  0  0  0  0  0
   -6.1855    0.0940   -0.5417 C   0  0  0  0  0  0  0  0  0  0  0  0
   -6.7162   -0.7459   -1.3182 O   0  0  0  0  0  0  0  0  0  0  0  0
   -4.7199    0.1052   -0.3384 C   0  0  0  0  0  0  0  0  0  0  0  0
   -3.8962   -0.8204   -1.0015 C   0  0  0  0  0  0  0  0  0  0  0  0
   -2.5117   -0.8066   -0.8076 C   0  0  0  0  0  0  0  0  0  0  0  0
   -1.9200    0.1419    0.0485 C   0  0  0  0  0  0  0  0  0  0  0  0
   -2.7471    1.0532    0.7234 C   0  0  0  0  0  0  0  0  0  0  0  0
   -4.1311    1.0398    0.5286 C   0  0  0  0  0  0  0  0  0  0  0  0
   -0.4581    0.1867    0.2966 C   0  0  0  0  0  0  0  0  0  0  0  0
    0.4532   -0.2900   -0.5656 C   0  0  0  0  0  0  0  0  0  0  0  0
    1.9159   -0.2282   -0.3261 C   0  0  0  0  0  0  0  0  0  0  0  0
    2.4664   -0.1501    0.9676 C   0  0  0  0  0  0  0  0  0  0  0  0
    3.8523   -0.1075    1.1470 C   0  0  0  0  0  0  0  0  0  0  0  0
    4.7177   -0.1515    0.0407 C   0  0  0  0  0  0  0  0  0  0  0  0
    4.1687   -0.2467   -1.2482 C   0  0  0  0  0  0  0  0  0  0  0  0
    2.7832   -0.2903   -1.4278 C   0  0  0  0  0  0  0  0  0  0  0  0
    6.1849   -0.1059    0.2268 C   0  0  0  0  0  0  0  0  0  0  0  0
    6.6798   -0.0225    1.3835 O   0  0  0  0  0  0  0  0  0  0  0  0
    7.0342   -0.1544   -0.8758 O   0  0  0  0  0  0  0  0  0  0  0  0
   -7.9979    1.0138   -0.0088 H   0  0  0  0  0  0  0  0  0  0  0  0
   -4.3220   -1.5619   -1.6661 H   0  0  0  0  0  0  0  0  0  0  0  0
   -1.9168   -1.5559   -1.3116 H   0  0  0  0  0  0  0  0  0  0  0  0
   -2.3195    1.7853    1.3980 H   0  0  0  0  0  0  0  0  0  0  0  0
   -4.7389    1.7621    1.0590 H   0  0  0  0  0  0  0  0  0  0  0  0
   -0.1279    0.6947    1.1932 H   0  0  0  0  0  0  0  0  0  0  0  0
    0.1286   -0.6817   -1.5207 H   0  0  0  0  0  0  0  0  0  0  0  0
    1.8362   -0.1462    1.8463 H   0  0  0  0  0  0  0  0  0  0  0  0
    4.2457   -0.0474    2.1542 H   0  0  0  0  0  0  0  0  0  0  0  0
    4.8087   -0.2887   -2.1206 H   0  0  0  0  0  0  0  0  0  0  0  0
    2.3869   -0.3639   -2.4335 H   0  0  0  0  0  0  0  0  0  0  0  0
    8.0401   -0.1237   -0.7596 H   0  0  0  0  0  0  0  0  0  0  0  0
  1  2  1  0
  2  3  2  0
  2  4  1  0
  4  5  2  0
  5  6  1  0
  6  7  2  0
  7  8  1  0
  8  9  2  0
  7 10  1  0
 10 11  2  0
 11 12  1  0
 12 13  2  0
 13 14  1  0
 14 15  2  0
 15 16  1  0
 16 17  2  0
 15 18  1  0
 18 19  2  0
 18 20  1  0
  9  4  1  0
 17 12  1  0
  1 21  1  0
  5 22  1  0
  6 23  1  0
  8 24  1  0
  9 25  1  0
 10 26  1  0
 11 27  1  0
 13 28  1  0
 14 29  1  0
 16 30  1  0
 17 31  1  0
 20 32  1  0
M  END
