
     RDKit          3D

 53 56  0  0  0  0  0  0  0  0999 V2000
    0.0421   -0.1202   -0.0836 C   0  0  0  0  0  0  0  0  0  0  0  0
    1.0346    0.0120   -1.1502 C   0  0  0  0  0  0  0  0  0  0  0  0
    2.3378    0.3798   -0.8065 C   0  0  0  0  0  0  0  0  0  0  0  0
    3.3351    0.5239   -1.7440 C   0  0  0  0  0  0  0  0  0  0  0  0
    3.0573    0.3008   -3.0803 C   0  0  0  0  0  0  0  0  0  0  0  0
    4.0809    0.4434   -4.0833 N   0  0  0  0  0  0  0  0  0  0  0  0
    1.7754   -0.0663   -3.4628 C   0  0  0  0  0  0  0  0  0  0  0  0
    0.8079   -0.1989   -2.4901 C   0  0  0  0  0  0  0  0  0  0  0  0
   -0.5251    1.2279    0.2369 C   0  0  0  0  0  0  0  0  0  0  0  0
   -1.8374    1.3251    0.7272 C   0  0  0  0  0  0  0  0  0  0  0  0
   -2.3955    2.5627    1.0290 C   0  0  0  0  0  0  0  0  0  0  0  0
   -1.6876    3.7207    0.8591 C   0  0  0  0  0  0  0  0  0  0  0  0
   -2.2221    5.0088    1.1559 N   0  0  0  0  0  0  0  0  0  0  0  0
   -0.4110    3.6377    0.3832 C   0  0  0  0  0  0  0  0  0  0  0  0
    0.1457    2.3979    0.0816 C   0  0  0  0  0  0  0  0  0  0  0  0
    0.6939   -0.5628    1.1777 C   0  0  0  0  0  0  0  0  0  0  0  0
    0.5310    0.0858    2.3849 C   0  0  0  0  0  0  0  0  0  0  0  0
    1.1534   -0.3477    3.5216 C   0  0  0  0  0  0  0  0  0  0  0  0
    1.9781   -1.4525    3.5383 C   0  0  0  0  0  0  0  0  0  0  0  0
    2.6335   -1.9177    4.7122 N   0  0  0  0  0  0  0  0  0  0  0  0
    2.1543   -2.1149    2.3436 C   0  0  0  0  0  0  0  0  0  0  0  0
    1.5282   -1.6801    1.1953 C   0  0  0  0  0  0  0  0  0  0  0  0
   -1.1310   -0.9521   -0.4585 C   0  0  0  0  0  0  0  0  0  0  0  0
   -2.1051   -0.4597   -1.3271 C   0  0  0  0  0  0  0  0  0  0  0  0
   -3.2030   -1.2161   -1.6907 C   0  0  0  0  0  0  0  0  0  0  0  0
   -3.3829   -2.4945   -1.2081 C   0  0  0  0  0  0  0  0  0  0  0  0
   -4.5110   -3.2379   -1.5970 N   0  0  0  0  0  0  0  0  0  0  0  0
   -2.4329   -2.9976   -0.3500 C   0  0  0  0  0  0  0  0  0  0  0  0
   -1.3368   -2.2318    0.0078 C   0  0  0  0  0  0  0  0  0  0  0  0
    2.6163    0.5687    0.2339 H   0  0  0  0  0  0  0  0  0  0  0  0
    4.3435    0.8077   -1.4840 H   0  0  0  0  0  0  0  0  0  0  0  0
    4.6983    1.2813   -4.1220 H   0  0  0  0  0  0  0  0  0  0  0  0
    4.1927   -0.3202   -4.7794 H   0  0  0  0  0  0  0  0  0  0  0  0
    1.5305   -0.2480   -4.5088 H   0  0  0  0  0  0  0  0  0  0  0  0
   -0.1742   -0.4869   -2.8174 H   0  0  0  0  0  0  0  0  0  0  0  0
   -2.4589    0.4731    0.8942 H   0  0  0  0  0  0  0  0  0  0  0  0
   -3.4211    2.6368    1.4117 H   0  0  0  0  0  0  0  0  0  0  0  0
   -2.9054    5.4700    0.5145 H   0  0  0  0  0  0  0  0  0  0  0  0
   -1.9617    5.5433    2.0113 H   0  0  0  0  0  0  0  0  0  0  0  0
    0.1566    4.5555    0.2463 H   0  0  0  0  0  0  0  0  0  0  0  0
    1.1487    2.4125   -0.2865 H   0  0  0  0  0  0  0  0  0  0  0  0
   -0.1045    0.9597    2.4372 H   0  0  0  0  0  0  0  0  0  0  0  0
    1.0080    0.1784    4.4493 H   0  0  0  0  0  0  0  0  0  0  0  0
    2.1597   -2.5109    5.4299 H   0  0  0  0  0  0  0  0  0  0  0  0
    3.6345   -1.6734    4.8965 H   0  0  0  0  0  0  0  0  0  0  0  0
    2.7972   -3.0065    2.2718 H   0  0  0  0  0  0  0  0  0  0  0  0
    1.6823   -2.2244    0.2515 H   0  0  0  0  0  0  0  0  0  0  0  0
   -2.0426    0.5403   -1.7522 H   0  0  0  0  0  0  0  0  0  0  0  0
   -3.9416   -0.7885   -2.3750 H   0  0  0  0  0  0  0  0  0  0  0  0
   -4.5740   -3.6393   -2.5504 H   0  0  0  0  0  0  0  0  0  0  0  0
   -5.3160   -3.4046   -0.9321 H   0  0  0  0  0  0  0  0  0  0  0  0
   -2.5408   -4.0101    0.0545 H   0  0  0  0  0  0  0  0  0  0  0  0
   -0.6352   -2.6899    0.6830 H   0  0  0  0  0  0  0  0  0  0  0  0
  1  2  1  0
  2  3  2  0
  3  4  1  0
  4  5  2  0
  5  6  1  0
  5  7  1  0
  7  8  2  0
  1  9  1  0
  9 10  2  0
 10 11  1  0
 11 12  2  0
 12 13  1  0
 12 14  1  0
 14 15  2  0
  1 16  1  0
 16 17  2  0
 17 18  1  0
 18 19  2  0
 19 20  1  0
 19 21  1  0
 21 22  2  0
  1 23  1  0
 23 24  2  0
 24 25  1  0
 25 26  2  0
 26 27  1  0
 26 28  1  0
 28 29  2  0
  8  2  1  0
 15  9  1  0
 22 16  1  0
 29 23  1  0
  3 30  1  0
  4 31  1  0
  6 32  1  0
  6 33  1  0
  7 34  1  0
  8 35  1  0
 10 36  1  0
 11 37  1  0
 13 38  1  0
 13 39  1  0
 14 40  1  0
 15 41  1  0
 17 42  1  0
 18 43  1  0
 20 44  1  0
 20 45  1  0
 21 46  1  0
 22 47  1  0
 24 48  1  0
 25 49  1  0
 27 50  1  0
 27 51  1  0
 28 52  1  0
 29 53  1  0
M  END
