
     RDKit          3D

 45 48  0  0  0  0  0  0  0  0999 V2000
    0.0041    0.0404   -0.0553 C   0  0  0  0  0  0  0  0  0  0  0  0
   -0.5385   -0.1348    1.3166 C   0  0  0  0  0  0  0  0  0  0  0  0
   -0.5168   -1.3908    1.8805 C   0  0  0  0  0  0  0  0  0  0  0  0
   -0.9955   -1.6074    3.1437 C   0  0  0  0  0  0  0  0  0  0  0  0
   -1.5168   -0.5328    3.8752 C   0  0  0  0  0  0  0  0  0  0  0  0
   -1.5423    0.7090    3.3266 C   0  0  0  0  0  0  0  0  0  0  0  0
   -1.0555    0.9228    2.0457 C   0  0  0  0  0  0  0  0  0  0  0  0
   -2.0585   -0.7891    5.3118 B   0  0  0  0  0  0  0  0  0  0  0  0
   -1.6266   -1.9842    6.0359 O   0  0  0  0  0  0  0  0  0  0  0  0
   -3.2957   -0.1424    5.7058 O   0  0  0  0  0  0  0  0  0  0  0  0
   -1.2947   -1.7184    6.9511 H   0  0  0  0  0  0  0  0  0  0  0  0
   -3.0708    0.7338    6.1416 H   0  0  0  0  0  0  0  0  0  0  0  0
    1.4790   -0.2533   -0.0559 C   0  0  0  0  0  0  0  0  0  0  0  0
    2.0043   -1.3245   -0.7661 C   0  0  0  0  0  0  0  0  0  0  0  0
    3.3386   -1.6147   -0.7780 C   0  0  0  0  0  0  0  0  0  0  0  0
    4.1997   -0.8185   -0.0604 C   0  0  0  0  0  0  0  0  0  0  0  0
    3.7097    0.2671    0.6659 C   0  0  0  0  0  0  0  0  0  0  0  0
    2.3561    0.5358    0.6590 C   0  0  0  0  0  0  0  0  0  0  0  0
    5.7186   -1.1279   -0.0587 B   0  0  0  0  0  0  0  0  0  0  0  0
    6.6379   -0.0501    0.2811 O   0  0  0  0  0  0  0  0  0  0  0  0
    6.2542   -2.2736   -0.7710 O   0  0  0  0  0  0  0  0  0  0  0  0
    6.8283    0.5241   -0.5199 H   0  0  0  0  0  0  0  0  0  0  0  0
    5.5652   -2.9675   -0.9339 H   0  0  0  0  0  0  0  0  0  0  0  0
   -0.6512   -0.9284   -0.9433 C   0  0  0  0  0  0  0  0  0  0  0  0
   -1.7729   -0.6259   -1.6847 C   0  0  0  0  0  0  0  0  0  0  0  0
   -2.3233   -1.5996   -2.4950 C   0  0  0  0  0  0  0  0  0  0  0  0
   -1.8153   -2.8690   -2.6094 C   0  0  0  0  0  0  0  0  0  0  0  0
   -0.6978   -3.1759   -1.8724 C   0  0  0  0  0  0  0  0  0  0  0  0
   -0.1540   -2.2132   -1.0720 C   0  0  0  0  0  0  0  0  0  0  0  0
   -2.4263   -3.9710   -3.5212 B   0  0  0  0  0  0  0  0  0  0  0  0
   -3.8571   -4.3005   -3.4406 O   0  0  0  0  0  0  0  0  0  0  0  0
   -1.8097   -4.1374   -4.8490 O   0  0  0  0  0  0  0  0  0  0  0  0
   -4.1563   -4.3770   -2.5213 H   0  0  0  0  0  0  0  0  0  0  0  0
   -2.3426   -4.6604   -5.4699 H   0  0  0  0  0  0  0  0  0  0  0  0
   -0.2503    1.4460   -0.4608 C   0  0  0  0  0  0  0  0  0  0  0  0
    0.3140    2.4602    0.3024 C   0  0  0  0  0  0  0  0  0  0  0  0
    0.0839    3.7874   -0.0677 C   0  0  0  0  0  0  0  0  0  0  0  0
   -0.7017    4.0882   -1.1882 C   0  0  0  0  0  0  0  0  0  0  0  0
   -1.2586    3.0565   -1.9407 C   0  0  0  0  0  0  0  0  0  0  0  0
   -1.0358    1.7278   -1.5807 C   0  0  0  0  0  0  0  0  0  0  0  0
   -0.9249    5.5837   -1.5572 B   0  0  0  0  0  0  0  0  0  0  0  0
   -2.1974    6.1948   -1.1909 O   0  0  0  0  0  0  0  0  0  0  0  0
    0.1702    6.4563   -1.9732 O   0  0  0  0  0  0  0  0  0  0  0  0
   -2.9272    5.7760   -1.7490 H   0  0  0  0  0  0  0  0  0  0  0  0
    0.1504    7.2782   -1.4564 H   0  0  0  0  0  0  0  0  0  0  0  0
  2  3  2  0
  3  4  1  0
  4  5  2  0
  5  6  1  0
  6  7  2  0
  7  2  1  0
  1  2  1  0
  5  8  1  0
  8  9  1  0
  8 10  1  0
  9 11  1  0
 10 12  1  0
 13 14  2  0
 14 15  1  0
 15 16  2  0
 16 17  1  0
 17 18  2  0
 18 13  1  0
  1 13  1  0
 16 19  1  0
 19 20  1  0
 19 21  1  0
 20 22  1  0
 21 23  1  0
 24 25  2  0
 25 26  1  0
 26 27  2  0
 27 28  1  0
 28 29  2  0
 29 24  1  0
  1 24  1  0
 27 30  1  0
 30 31  1  0
 30 32  1  0
 31 33  1  0
 32 34  1  0
 35 36  2  0
 36 37  1  0
 37 38  2  0
 38 39  1  0
 39 40  2  0
 40 35  1  0
  1 35  1  0
 38 41  1  0
 41 42  1  0
 41 43  1  0
 42 44  1  0
 43 45  1  0
M  END
